@<TRIPOS>MOLECULE
5xpl-mod-alternateA-add - hbond-opt_ligand
89   92    1
SMALL
USER_CHARGES


@<TRIPOS>ATOM
      1 O3          6.1780   -2.8160   13.2830 O.2       1 8C9         0.0000 
      2 C22         7.1790   -2.9820   14.0090 C.2       1 8C9         0.0000 
      3 C23         7.6990   -4.3870   14.2640 C.ar      1 8C9         0.0000 
      4 C28         7.0480   -5.4660   13.6570 C.ar      1 8C9         0.0000 
      5 C27         7.5220   -6.7740   13.8270 C.ar      1 8C9         0.0000 
      6 C26         8.6390   -7.0050   14.6260 C.ar      1 8C9         0.0000 
      7 O4          9.0710   -8.2810   14.7700 O.3       1 8C9         0.0000 
      8 C25         9.2980   -5.9410   15.2500 C.ar      1 8C9         0.0000 
      9 C24         8.8310   -4.6390   15.0670 C.ar      1 8C9         0.0000 
     10 C21         7.9360   -1.8050   14.6290 C.3       1 8C9         0.0000 
     11 C20         7.7640   -0.5230   13.8460 C.3       1 8C9         0.0000 
     12 C19         8.4630    0.6610   14.5640 C.3       1 8C9         0.0000 
     13 C31         7.8410    0.9430   15.9460 C.3       1 8C9         0.0000 
     14 C32         8.7890    0.5010   17.0450 C.3       1 8C9         0.0000 
     15 C33         7.9880   -0.2710   18.0600 C.3       1 8C9         0.0000 
     16 C34         7.3600    0.5700   19.1480 C.3       1 8C9         0.0000 
     17 C18         8.4470    1.9100   13.7060 C.3       1 8C9         0.0000 
     18 C30         7.0090    2.4430   13.5130 C.3       1 8C9         0.0000 
     19 C17         9.4730    2.9610   14.1800 C.3       1 8C9         0.0000 
     20 C13         9.4510    4.2810   13.4470 C.3       1 8C9         0.0000 
     21 C29         9.3330    4.1170   11.9080 C.3       1 8C9         0.0000 
     22 C12         8.4510    5.3150   13.9660 C.3       1 8C9         0.0000 
     23 C11         8.7340    6.7200   13.3770 C.3       1 8C9         0.0000 
     24 C10        10.1990    7.2570   13.4940 C.3       1 8C9         0.0000 
     25 C16        10.9390    2.4800   14.1690 C.3       1 8C9         0.0000 
     26 C15        11.8210    3.6410   13.7500 C.3       1 8C9         0.0000 
     27 C14        10.8290    4.8030   13.8220 C.3       1 8C9         0.0000 
     28 C9         11.1400    6.1130   13.1200 C.2       1 8C9         0.0000 
     29 C8         12.1810    6.1960   12.2450 C.2       1 8C9         0.0000 
     30 C7         12.4600    7.3790   11.4520 C.2       1 8C9         0.0000 
     31 C5         13.0180    7.3680   10.2260 C.2       1 8C9         0.0000 
     32 C6         13.4510    6.0790    9.5450 C.3       1 8C9         0.0000 
     33 C1         14.7040    6.2570    8.6700 C.3       1 8C9         0.0000 
     34 O1         14.8230    5.1320    7.7850 O.3       1 8C9         0.0000 
     35 C4         13.1220    8.7030    9.4950 C.3       1 8C9         0.0000 
     36 C3         14.4550    8.8430    8.7620 C.3       1 8C9         0.0000 
     37 O2         15.5950    8.9210    9.6730 O.3       1 8C9         0.0000 
     38 C2         14.6740    7.5880    7.9210 C.2       1 8C9         0.0000 
     39 C35        14.8010    7.6660    6.6120 C.2       1 8C9         0.0000 
     40 HC28        6.1710   -5.2955   13.0502 H         1 8C9         0.0000 
     41 HC27        7.0214   -7.5974   13.3394 H         1 8C9         0.0000 
     42 HO4         8.3330   -8.8841   14.6548 H         1 8C9         0.0000 
     43 HC25       10.1627   -6.1298   15.8689 H         1 8C9         0.0000 
     44 HC24        9.3454   -3.8199   15.5475 H         1 8C9         0.0000 
     45 H211        8.9961   -2.0501   14.6943 H         1 8C9         0.0000 
     46 H212        7.5936   -1.6530   15.6526 H         1 8C9         0.0000 
     47 H201        6.7018   -0.3046   13.7360 H         1 8C9         0.0000 
     48 H202        8.1899   -0.6460   12.8502 H         1 8C9         0.0000 
     49 HC19        9.5049    0.3824   14.7218 H         1 8C9         0.0000 
     50 H311        6.9001    0.4004   16.0382 H         1 8C9         0.0000 
     51 H312        7.6437    2.0105   16.0443 H         1 8C9         0.0000 
     52 H321        9.2278    1.3783   17.5202 H         1 8C9         0.0000 
     53 H322        9.5584   -0.1452   16.6224 H         1 8C9         0.0000 
     54 H331        8.6204   -1.0341   18.5137 H         1 8C9         0.0000 
     55 H332        7.2105   -0.8393   17.5494 H         1 8C9         0.0000 
     56 H341        6.8044   -0.0734   19.8302 H         1 8C9         0.0000 
     57 H342        8.1408    1.0945   19.6988 H         1 8C9         0.0000 
     58 H343        6.6814    1.2962   18.7005 H         1 8C9         0.0000 
     59 HC18        8.7811    1.5946   12.7176 H         1 8C9         0.0000 
     60 H301        7.0333    3.3392   12.8930 H         1 8C9         0.0000 
     61 H302        6.4009    1.6810   13.0255 H         1 8C9         0.0000 
     62 H303        6.5773    2.6852   14.4841 H         1 8C9         0.0000 
     63 HC17        9.2294    3.1820   15.2192 H         1 8C9         0.0000 
     64 H291        9.3222    5.1000   11.4371 H         1 8C9         0.0000 
     65 H292       10.1841    3.5461   11.5366 H         1 8C9         0.0000 
     66 H293        8.4098    3.5895   11.6680 H         1 8C9         0.0000 
     67 H121        8.5069    5.3596   15.0537 H         1 8C9         0.0000 
     68 H122        7.4398    5.0071   13.7000 H         1 8C9         0.0000 
     69 H111        8.0510    7.4411   13.8260 H         1 8C9         0.0000 
     70 H112        8.4279    6.7385   12.3310 H         1 8C9         0.0000 
     71 H101       10.3918    7.5640   14.5219 H         1 8C9         0.0000 
     72 H102       10.3389    8.0841   12.7979 H         1 8C9         0.0000 
     73 H161       11.0482    1.6647   13.4538 H         1 8C9         0.0000 
     74 H162       11.2211    2.1525   15.1696 H         1 8C9         0.0000 
     75 H151       12.1302    3.4990   12.7145 H         1 8C9         0.0000 
     76 H152       12.5982    3.7879   14.5000 H         1 8C9         0.0000 
     77 HC14       10.7607    5.0552   14.8802 H         1 8C9         0.0000 
     78 HC8        12.8463    5.3551   12.1159 H         1 8C9         0.0000 
     79 HC7        12.2170    8.3578   11.8384 H         1 8C9         0.0000 
     80 H6_1       12.6326    5.7003    8.9328 H         1 8C9         0.0000 
     81 H6_2       13.6421    5.3168   10.3004 H         1 8C9         0.0000 
     82 HC1        15.5740    6.2610    9.3266 H         1 8C9         0.0000 
     83 HO1        13.9746    4.9593    7.3704 H         1 8C9         0.0000 
     84 H4_1       13.0145    9.5178   10.2109 H         1 8C9         0.0000 
     85 H4_2       12.3040    8.7896    8.7798 H         1 8C9         0.0000 
     86 HC3        14.4338    9.7222    8.1180 H         1 8C9         0.0000 
     87 HO2        15.3849    9.5126   10.3993 H         1 8C9         0.0000 
     88 H351       14.7739    8.6287    6.1232 H         1 8C9         0.0000 
     89 H352       14.9322    6.7672    6.0277 H         1 8C9         0.0000 
@<TRIPOS>BOND
     1    1    2 2    
     2    2    3 1    
     3    2   10 1    
     4    3    4 ar   
     5    3    9 ar   
     6    4    5 ar   
     7    4   40 1    
     8    5    6 ar   
     9    5   41 1    
    10    6    7 1    
    11    6    8 ar   
    12    7   42 1    
    13    8    9 ar   
    14    8   43 1    
    15    9   44 1    
    16   10   11 1    
    17   10   45 1    
    18   10   46 1    
    19   11   12 1    
    20   11   47 1    
    21   11   48 1    
    22   12   13 1    
    23   12   17 1    
    24   12   49 1    
    25   13   14 1    
    26   13   50 1    
    27   13   51 1    
    28   14   15 1    
    29   14   52 1    
    30   14   53 1    
    31   15   16 1    
    32   15   54 1    
    33   15   55 1    
    34   16   56 1    
    35   16   57 1    
    36   16   58 1    
    37   17   18 1    
    38   17   19 1    
    39   17   59 1    
    40   18   60 1    
    41   18   61 1    
    42   18   62 1    
    43   19   20 1    
    44   19   25 1    
    45   19   63 1    
    46   20   21 1    
    47   20   22 1    
    48   20   27 1    
    49   21   64 1    
    50   21   65 1    
    51   21   66 1    
    52   22   23 1    
    53   22   67 1    
    54   22   68 1    
    55   23   24 1    
    56   23   69 1    
    57   23   70 1    
    58   24   28 1    
    59   24   71 1    
    60   24   72 1    
    61   25   26 1    
    62   25   73 1    
    63   25   74 1    
    64   26   27 1    
    65   26   75 1    
    66   26   76 1    
    67   27   28 1    
    68   27   77 1    
    69   28   29 2    
    70   29   30 1    
    71   29   78 1    
    72   30   31 2    
    73   30   79 1    
    74   31   32 1    
    75   31   35 1    
    76   32   33 1    
    77   32   80 1    
    78   32   81 1    
    79   33   34 1    
    80   33   38 1    
    81   33   82 1    
    82   34   83 1    
    83   35   36 1    
    84   35   84 1    
    85   35   85 1    
    86   36   37 1    
    87   36   38 1    
    88   36   86 1    
    89   37   87 1    
    90   38   39 2    
    91   39   88 1    
    92   39   89 1    
@<TRIPOS>SUBSTRUCTURE
     1 8C9         1 GROUP             0 A     ****    0 ROOT    
