@<TRIPOS>MOLECULE
5awj-mod-alterA-add - hbond-opt_ligand
83   85    1
SMALL
USER_CHARGES


@<TRIPOS>ATOM
      1 O33        16.3430  -20.5030  -26.9700 O.3       1 YSL         0.0000 
      2 C26        17.1620  -21.6240  -26.6310 C.3       1 YSL         0.0000 
      3 C25        17.5580  -22.3670  -27.9000 C.3       1 YSL         0.0000 
      4 C20        18.8060  -23.2160  -27.6940 C.3       1 YSL         0.0000 
      5 C21        19.4820  -23.4790  -29.0310 C.3       1 YSL         0.0000 
      6 C22        20.3430  -22.2870  -29.4240 C.3       1 YSL         0.0000 
      7 C23        21.4890  -22.6990  -30.3340 C.3       1 YSL         0.0000 
      8 C24        21.6980  -21.6700  -31.4360 C.3       1 YSL         0.0000 
      9 C31        22.7000  -20.6090  -31.0020 C.3       1 YSL         0.0000 
     10 C32        24.1150  -21.0610  -31.2820 C.3       1 YSL         0.0000 
     11 C18        18.4900  -24.5240  -26.9860 C.3       1 YSL         0.0000 
     12 C19        17.5750  -25.3970  -27.8320 C.3       1 YSL         0.0000 
     13 C17        19.7700  -25.2710  -26.6350 C.3       1 YSL         0.0000 
     14 C13        19.5130  -26.6150  -25.9770 C.3       1 YSL         0.0000 
     15 C34        18.4350  -26.4810  -24.9070 C.3       1 YSL         0.0000 
     16 C12        19.1830  -27.7490  -26.9270 C.3       1 YSL         0.0000 
     17 C11        19.0520  -29.0510  -26.1420 C.3       1 YSL         0.0000 
     18 C10        20.2510  -29.3630  -25.2420 C.3       1 YSL         0.0000 
     19 C9         20.7370  -28.1270  -24.5200 C.2       1 YSL         0.0000 
     20 C14        20.8620  -26.9030  -25.3650 C.3       1 YSL         0.0000 
     21 C15        21.2950  -25.5930  -24.7340 C.3       1 YSL         0.0000 
     22 C16        20.6600  -24.5320  -25.6350 C.3       1 YSL         0.0000 
     23 C8         21.0250  -28.1400  -23.2080 C.2       1 YSL         0.0000 
     24 C7         20.8640  -29.3820  -22.4550 C.2       1 YSL         0.0000 
     25 C6         20.5510  -29.4070  -21.1530 C.2       1 YSL         0.0000 
     26 C5         20.3880  -30.7420  -20.4590 C.3       1 YSL         0.0000 
     27 C4         21.0510  -30.7690  -19.0870 C.3       1 YSL         0.0000 
     28 O31        22.4660  -30.8000  -19.2540 O.3       1 YSL         0.0000 
     29 C3         20.6870  -29.5450  -18.3100 C.2       1 YSL         0.0000 
     30 C33        20.1700  -29.6580  -17.1030 C.2       1 YSL         0.0000 
     31 C2         20.9310  -28.2090  -18.9510 C.3       1 YSL         0.0000 
     32 O32        20.3610  -27.1740  -18.1510 O.3       1 YSL         0.0000 
     33 C1         20.3500  -28.1320  -20.3640 C.3       1 YSL         0.0000 
     34 HO33       15.5526  -20.8084  -27.4212 H         1 YSL         0.0000 
     35 H261       16.6062  -22.2949  -25.9759 H         1 YSL         0.0000 
     36 H262       18.0592  -21.2765  -26.1188 H         1 YSL         0.0000 
     37 H251       17.7362  -21.6486  -28.7002 H         1 YSL         0.0000 
     38 H252       16.7338  -23.0052  -28.2187 H         1 YSL         0.0000 
     39 HC20       19.4992  -22.6524  -27.0696 H         1 YSL         0.0000 
     40 H211       18.7228  -23.6461  -29.7950 H         1 YSL         0.0000 
     41 H212       20.1072  -24.3684  -28.9530 H         1 YSL         0.0000 
     42 H221       20.7439  -21.8173  -28.5258 H         1 YSL         0.0000 
     43 H222       19.7259  -21.5453  -29.9311 H         1 YSL         0.0000 
     44 H231       21.2677  -23.6686  -30.7800 H         1 YSL         0.0000 
     45 H232       22.4027  -22.7930  -29.7471 H         1 YSL         0.0000 
     46 H241       20.7464  -21.1947  -31.6740 H         1 YSL         0.0000 
     47 H242       22.0634  -22.1687  -32.3337 H         1 YSL         0.0000 
     48 H311       22.5850  -20.4159  -29.9354 H         1 YSL         0.0000 
     49 H312       22.5022  -19.6816  -31.5394 H         1 YSL         0.0000 
     50 H321       24.8138  -20.2873  -30.9639 H         1 YSL         0.0000 
     51 H322       24.3182  -21.9810  -30.7340 H         1 YSL         0.0000 
     52 H323       24.2348  -21.2411  -32.3503 H         1 YSL         0.0000 
     53 HC18       17.9699  -24.2890  -26.0574 H         1 YSL         0.0000 
     54 H191       17.3655  -26.3258  -27.3014 H         1 YSL         0.0000 
     55 H192       16.6406  -24.8685  -28.0212 H         1 YSL         0.0000 
     56 H193       18.0624  -25.6230  -28.7804 H         1 YSL         0.0000 
     57 HC17       20.3384  -25.4355  -27.5504 H         1 YSL         0.0000 
     58 H341       18.2603  -27.4517  -24.4430 H         1 YSL         0.0000 
     59 H342       18.7617  -25.7698  -24.1484 H         1 YSL         0.0000 
     60 H343       17.5113  -26.1256  -25.3636 H         1 YSL         0.0000 
     61 H121       19.9795  -27.8482  -27.6645 H         1 YSL         0.0000 
     62 H122       18.2426  -27.5351  -27.4349 H         1 YSL         0.0000 
     63 H111       18.8964  -29.8771  -26.8358 H         1 YSL         0.0000 
     64 H112       18.1454  -29.0189  -25.5378 H         1 YSL         0.0000 
     65 H101       21.0609  -29.7725  -25.8457 H         1 YSL         0.0000 
     66 H102       19.9691  -30.1221  -24.5123 H         1 YSL         0.0000 
     67 HC14       21.5548  -27.1273  -26.1760 H         1 YSL         0.0000 
     68 H151       22.3804  -25.5086  -24.7879 H         1 YSL         0.0000 
     69 H152       20.8696  -25.5172  -23.7333 H         1 YSL         0.0000 
     70 H161       20.0479  -23.8624  -25.0307 H         1 YSL         0.0000 
     71 H162       21.4430  -23.9972  -26.1727 H         1 YSL         0.0000 
     72 HC8        21.3709  -27.2396  -22.7221 H         1 YSL         0.0000 
     73 HC7        20.9982  -30.3336  -22.9479 H         1 YSL         0.0000 
     74 H5_1       20.8130  -31.5287  -21.0824 H         1 YSL         0.0000 
     75 H5_2       19.3270  -30.9683  -20.3533 H         1 YSL         0.0000 
     76 HC4        20.7280  -31.6565  -18.5428 H         1 YSL         0.0000 
     77 HO31       22.6997  -31.4882  -19.8812 H         1 YSL         0.0000 
     78 H331       19.9075  -28.7727  -16.5429 H         1 YSL         0.0000 
     79 H332       20.0088  -30.6359  -16.6740 H         1 YSL         0.0000 
     80 HC2        22.0071  -28.0461  -19.0108 H         1 YSL         0.0000 
     81 HO32       19.4714  -26.9846  -18.4582 H         1 YSL         0.0000 
     82 H1_1       19.2852  -27.9061  -20.3059 H         1 YSL         0.0000 
     83 H1_2       20.8072  -27.2994  -20.8987 H         1 YSL         0.0000 
@<TRIPOS>BOND
     1    1    2 1    
     2    1   34 1    
     3    2    3 1    
     4    2   35 1    
     5    2   36 1    
     6    3    4 1    
     7    3   37 1    
     8    3   38 1    
     9    4    5 1    
    10    4   11 1    
    11    4   39 1    
    12    5    6 1    
    13    5   40 1    
    14    5   41 1    
    15    6    7 1    
    16    6   42 1    
    17    6   43 1    
    18    7    8 1    
    19    7   44 1    
    20    7   45 1    
    21    8    9 1    
    22    8   46 1    
    23    8   47 1    
    24    9   10 1    
    25    9   48 1    
    26    9   49 1    
    27   10   50 1    
    28   10   51 1    
    29   10   52 1    
    30   11   12 1    
    31   11   13 1    
    32   11   53 1    
    33   12   54 1    
    34   12   55 1    
    35   12   56 1    
    36   13   14 1    
    37   13   22 1    
    38   13   57 1    
    39   14   15 1    
    40   14   16 1    
    41   14   20 1    
    42   15   58 1    
    43   15   59 1    
    44   15   60 1    
    45   16   17 1    
    46   16   61 1    
    47   16   62 1    
    48   17   18 1    
    49   17   63 1    
    50   17   64 1    
    51   18   19 1    
    52   18   65 1    
    53   18   66 1    
    54   19   20 1    
    55   19   23 2    
    56   20   21 1    
    57   20   67 1    
    58   21   22 1    
    59   21   68 1    
    60   21   69 1    
    61   22   70 1    
    62   22   71 1    
    63   23   24 1    
    64   23   72 1    
    65   24   25 2    
    66   24   73 1    
    67   25   26 1    
    68   25   33 1    
    69   26   27 1    
    70   26   74 1    
    71   26   75 1    
    72   27   28 1    
    73   27   29 1    
    74   27   76 1    
    75   28   77 1    
    76   29   30 2    
    77   29   31 1    
    78   30   78 1    
    79   30   79 1    
    80   31   32 1    
    81   31   33 1    
    82   31   80 1    
    83   32   81 1    
    84   33   82 1    
    85   33   83 1    
@<TRIPOS>SUBSTRUCTURE
     1 YSL         1 GROUP             0 A     ****    0 ROOT    
