@<TRIPOS>MOLECULE
2ZLC-helix-loop_ligand_ligand
74   76    1
SMALL
USER_CHARGES


@<TRIPOS>ATOM
      1 O2         16.2620    9.0190   19.3870 O.3       1 VDX         0.0000 
      2 O3          9.3720   -1.5540   28.0860 O.3       1 VDX         0.0000 
      3 C1         14.7030    6.4940   19.0660 C.3       1 VDX         0.0000 
      4 C2         14.3770    7.8420   18.3630 C.3       1 VDX         0.0000 
      5 C3         14.8440    9.0460   19.2530 C.3       1 VDX         0.0000 
      6 C4         14.2010    8.9960   20.6780 C.3       1 VDX         0.0000 
      7 C5         14.3070    7.5750   21.3130 C.2       1 VDX         0.0000 
      8 C6         14.6910    7.5850   22.6780 C.2       1 VDX         0.0000 
      9 C7         14.8710    6.4770   23.5100 C.2       1 VDX         0.0000 
     10 C8         14.6690    6.4010   24.8880 C.2       1 VDX         0.0000 
     11 C9         14.1870    7.6040   25.7750 C.3       1 VDX         0.0000 
     12 C10        14.0200    6.4410   20.4640 C.2       1 VDX         0.0000 
     13 C11        12.9690    7.2170   26.6680 C.3       1 VDX         0.0000 
     14 C12        13.0850    5.7900   27.3210 C.3       1 VDX         0.0000 
     15 C13        13.4980    4.6420   26.3360 C.3       1 VDX         0.0000 
     16 C14        14.8640    5.0830   25.6950 C.3       1 VDX         0.0000 
     17 C15        15.3690    3.7880   24.9550 C.3       1 VDX         0.0000 
     18 C16        14.8010    2.6580   25.8450 C.3       1 VDX         0.0000 
     19 C17        14.0940    3.3740   27.0140 C.3       1 VDX         0.0000 
     20 C18        12.3230    4.4200   25.3020 C.3       1 VDX         0.0000 
     21 C19        13.1770    5.3660   20.8090 C.2       1 VDX         0.0000 
     22 C20        13.1020    2.4140   27.8240 C.3       1 VDX         0.0000 
     23 C21        13.8640    1.4700   28.7720 C.3       1 VDX         0.0000 
     24 C22        12.1710    1.4870   26.9580 C.3       1 VDX         0.0000 
     25 C23        10.7820    1.2640   27.5950 C.3       1 VDX         0.0000 
     26 C24         9.8490    0.4080   26.6890 C.3       1 VDX         0.0000 
     27 C25         8.7560   -0.4590   27.3810 C.3       1 VDX         0.0000 
     28 C26         7.9640    0.3840   28.3820 C.3       1 VDX         0.0000 
     29 C27         7.7730   -1.0300   26.3510 C.3       1 VDX         0.0000 
     30 O1         14.3140    5.4230   18.1900 O.3       1 VDX         0.0000 
     31 HO2        16.5465    9.7564   19.9319 H         1 VDX         0.0000 
     32 HO3         8.6934   -2.0843   28.5101 H         1 VDX         0.0000 
     33 H1         15.7817    6.4389   19.2122 H         1 VDX         0.0000 
     34 H21        13.3027    7.9119   18.1924 H         1 VDX         0.0000 
     35 H22        14.8875    7.8824   17.4008 H         1 VDX         0.0000 
     36 H3         14.5532    9.9774   18.7672 H         1 VDX         0.0000 
     37 H41        13.1525    9.2869   20.6131 H         1 VDX         0.0000 
     38 H42        14.6962    9.7201   21.3249 H         1 VDX         0.0000 
     39 H6         14.8775    8.5231   23.1796 H         1 VDX         0.0000 
     40 H7         15.2054    5.5381   23.0941 H         1 VDX         0.0000 
     41 H91        13.9143    8.4415   25.1329 H         1 VDX         0.0000 
     42 H92        15.0084    7.9398   26.4079 H         1 VDX         0.0000 
     43 H111       12.0553    7.2704   26.0760 H         1 VDX         0.0000 
     44 H112       12.8436    7.9641   27.4518 H         1 VDX         0.0000 
     45 H121       12.1387    5.5334   27.7973 H         1 VDX         0.0000 
     46 H122       13.7944    5.8284   28.1477 H         1 VDX         0.0000 
     47 H14        15.5592    5.2922   26.5081 H         1 VDX         0.0000 
     48 H151       16.4581    3.7576   24.9880 H         1 VDX         0.0000 
     49 H152       14.9069    3.7349   23.9692 H         1 VDX         0.0000 
     50 H161       15.6225    2.0560   26.2334 H         1 VDX         0.0000 
     51 H162       14.0692    2.0835   25.2771 H         1 VDX         0.0000 
     52 H17        14.8658    3.7068   27.7080 H         1 VDX         0.0000 
     53 H181       12.5941    3.6239   24.6086 H         1 VDX         0.0000 
     54 H182       11.4152    4.1415   25.8371 H         1 VDX         0.0000 
     55 H183       12.1484    5.3413   24.7463 H         1 VDX         0.0000 
     56 H191       12.7077    5.3383   21.7813 H         1 VDX         0.0000 
     57 H192       13.0001    4.5698   20.1011 H         1 VDX         0.0000 
     58 H20        12.4590    3.0464   28.4362 H         1 VDX         0.0000 
     59 H211       13.1537    0.8358   29.3023 H         1 VDX         0.0000 
     60 H212       14.5459    0.8464   28.1939 H         1 VDX         0.0000 
     61 H213       14.4327    2.0586   29.4919 H         1 VDX         0.0000 
     62 H221       12.6587    0.5240   26.8066 H         1 VDX         0.0000 
     63 H222       12.0488    1.9218   25.9660 H         1 VDX         0.0000 
     64 H231       10.3132    2.2287   27.7892 H         1 VDX         0.0000 
     65 H232       10.9007    0.7721   28.5604 H         1 VDX         0.0000 
     66 H241       10.4591   -0.2299   26.0495 H         1 VDX         0.0000 
     67 H242        9.3767    1.0552   25.9500 H         1 VDX         0.0000 
     68 H261        7.4916    1.2176   27.8623 H         1 VDX         0.0000 
     69 H262        7.1972   -0.2328   28.8507 H         1 VDX         0.0000 
     70 H263        8.6381    0.7688   29.1473 H         1 VDX         0.0000 
     71 H271        7.2983   -0.2122   25.8088 H         1 VDX         0.0000 
     72 H272        8.3109   -1.6669   25.6488 H         1 VDX         0.0000 
     73 H273        7.0103   -1.6172   26.8625 H         1 VDX         0.0000 
     74 HO1        14.5080    4.5807   18.6078 H         1 VDX         0.0000 
@<TRIPOS>BOND
     1    1    5 1    
     2    1   31 1    
     3    2   27 1    
     4    2   32 1    
     5    3    4 1    
     6    3   12 1    
     7    3   30 1    
     8    3   33 1    
     9    4    5 1    
    10    4   34 1    
    11    4   35 1    
    12    5    6 1    
    13    5   36 1    
    14    6    7 1    
    15    6   37 1    
    16    6   38 1    
    17    7    8 2    
    18    7   12 1    
    19    8    9 1    
    20    8   39 1    
    21    9   10 2    
    22    9   40 1    
    23   10   11 1    
    24   10   16 1    
    25   11   13 1    
    26   11   41 1    
    27   11   42 1    
    28   12   21 2    
    29   13   14 1    
    30   13   43 1    
    31   13   44 1    
    32   14   15 1    
    33   14   45 1    
    34   14   46 1    
    35   15   16 1    
    36   15   19 1    
    37   15   20 1    
    38   16   17 1    
    39   16   47 1    
    40   17   18 1    
    41   17   48 1    
    42   17   49 1    
    43   18   19 1    
    44   18   50 1    
    45   18   51 1    
    46   19   22 1    
    47   19   52 1    
    48   20   53 1    
    49   20   54 1    
    50   20   55 1    
    51   21   56 1    
    52   21   57 1    
    53   22   23 1    
    54   22   24 1    
    55   22   58 1    
    56   23   59 1    
    57   23   60 1    
    58   23   61 1    
    59   24   25 1    
    60   24   62 1    
    61   24   63 1    
    62   25   26 1    
    63   25   64 1    
    64   25   65 1    
    65   26   27 1    
    66   26   66 1    
    67   26   67 1    
    68   27   28 1    
    69   27   29 1    
    70   28   68 1    
    71   28   69 1    
    72   28   70 1    
    73   29   71 1    
    74   29   72 1    
    75   29   73 1    
    76   30   74 1    
@<TRIPOS>SUBSTRUCTURE
     1 VDX         1 GROUP             0 A     ****    0 ROOT    
