@<TRIPOS>MOLECULE
2zxm-ATOM_transplant_ligand
77   79    1
SMALL
USER_CHARGES


@<TRIPOS>ATOM
      1 C31        16.7630   -6.6740   29.2720 C.3       1 JB1         0.0000 
      2 C30        15.9410   -5.5160   29.8350 C.3       1 JB1         0.0000 
      3 C29        14.4690   -5.9080   29.9930 C.3       1 JB1         0.0000 
      4 C28        13.5390   -4.7250   29.7130 C.3       1 JB1         0.0000 
      5 C22        13.2060   -4.4960   28.2060 C.3       1 JB1         0.0000 
      6 C23        12.4810   -5.7270   27.5660 C.3       1 JB1         0.0000 
      7 C24        11.0340   -6.1310   27.9280 C.3       1 JB1         0.0000 
      8 O03        10.4880   -7.0950   27.0290 O.3       1 JB1         0.0000 
      9 C20        12.3800   -3.1760   27.8960 C.3       1 JB1         0.0000 
     10 C21        11.5700   -2.6040   29.0920 C.3       1 JB1         0.0000 
     11 C17        13.3900   -2.1230   27.2580 C.3       1 JB1         0.0000 
     12 C16        14.3320   -2.8210   26.2040 C.3       1 JB1         0.0000 
     13 C15        14.7850   -1.7630   25.2010 C.3       1 JB1         0.0000 
     14 C14        14.3230   -0.5170   25.9380 C.3       1 JB1         0.0000 
     15 C13        12.8990   -0.8400   26.4770 C.3       1 JB1         0.0000 
     16 C18        11.7360   -1.1760   25.4500 C.3       1 JB1         0.0000 
     17 C12        12.4680    0.3750   27.3760 C.3       1 JB1         0.0000 
     18 C11        12.4030    1.7480   26.6240 C.3       1 JB1         0.0000 
     19 C09        13.6880    2.0570   25.8020 C.3       1 JB1         0.0000 
     20 C08        14.2780    0.8040   25.0740 C.2       1 JB1         0.0000 
     21 C07        14.7060    0.8710   23.7360 C.2       1 JB1         0.0000 
     22 C06        14.6720    2.0130   22.8870 C.2       1 JB1         0.0000 
     23 C05        14.3660    2.0260   21.4840 C.2       1 JB1         0.0000 
     24 C04        14.3840    3.3820   20.7010 C.3       1 JB1         0.0000 
     25 C03        15.1830    3.2980   19.3660 C.3       1 JB1         0.0000 
     26 O02        16.5810    3.1950   19.6630 O.3       1 JB1         0.0000 
     27 C02        14.7310    2.0680   18.5150 C.3       1 JB1         0.0000 
     28 C01        14.8020    0.7300   19.3240 C.3       1 JB1         0.0000 
     29 O01        14.2290   -0.3170   18.5370 O.3       1 JB1         0.0000 
     30 C10        14.0460    0.8710   20.6910 C.2       1 JB1         0.0000 
     31 C19        13.0820   -0.1050   21.0210 C.2       1 JB1         0.0000 
     32 H311       17.8037   -6.3661   29.1709 H         1 JB1         0.0000 
     33 H312       16.7010   -7.5267   29.9481 H         1 JB1         0.0000 
     34 H313       16.3717   -6.9566   28.2947 H         1 JB1         0.0000 
     35 H301       16.0183   -4.6579   29.1674 H         1 JB1         0.0000 
     36 H302       16.3443   -5.2222   30.8041 H         1 JB1         0.0000 
     37 H291       14.2974   -6.2725   31.0058 H         1 JB1         0.0000 
     38 H292       14.2352   -6.7232   29.3082 H         1 JB1         0.0000 
     39 H281       13.9758   -3.8167   30.1280 H         1 JB1         0.0000 
     40 H282       12.6120   -4.8548   30.2716 H         1 JB1         0.0000 
     41 H22        14.1601   -4.3941   27.6890 H         1 JB1         0.0000 
     42 H231       13.1230   -6.6018   27.6696 H         1 JB1         0.0000 
     43 H232       12.5609   -5.6530   26.4815 H         1 JB1         0.0000 
     44 H241       10.4013   -5.2435   27.9354 H         1 JB1         0.0000 
     45 H242       11.0121   -6.5287   28.9426 H         1 JB1         0.0000 
     46 HO03        9.5918   -7.3112   27.2966 H         1 JB1         0.0000 
     47 H20        11.6584   -3.4308   27.1198 H         1 JB1         0.0000 
     48 H211       11.0421   -1.7040   28.7767 H         1 JB1         0.0000 
     49 H212       10.8488   -3.3474   29.4317 H         1 JB1         0.0000 
     50 H213       12.2500   -2.3588   29.9079 H         1 JB1         0.0000 
     51 H17        14.0302   -1.7720   28.0673 H         1 JB1         0.0000 
     52 H161       13.7778   -3.6015   25.6827 H         1 JB1         0.0000 
     53 H162       15.2025   -3.2347   26.7131 H         1 JB1         0.0000 
     54 H151       14.2024   -1.8698   24.2860 H         1 JB1         0.0000 
     55 H152       15.8740   -1.7631   25.1535 H         1 JB1         0.0000 
     56 H14        14.9854   -0.3522   26.7878 H         1 JB1         0.0000 
     57 H181       11.4300   -0.2648   24.9360 H         1 JB1         0.0000 
     58 H182       12.0939   -1.9017   24.7197 H         1 JB1         0.0000 
     59 H183       10.8845   -1.5925   25.9881 H         1 JB1         0.0000 
     60 H121       13.1507    0.4585   28.2216 H         1 JB1         0.0000 
     61 H122       11.4984    0.1642   27.8272 H         1 JB1         0.0000 
     62 H111       12.2334    2.5478   27.3448 H         1 JB1         0.0000 
     63 H112       11.5381    1.7568   25.9607 H         1 JB1         0.0000 
     64 H091       14.4451    2.4826   26.4606 H         1 JB1         0.0000 
     65 H092       13.4701    2.8327   25.0679 H         1 JB1         0.0000 
     66 H07        15.1108   -0.0066   23.2539 H         1 JB1         0.0000 
     67 H06        14.8905    2.9913   23.2889 H         1 JB1         0.0000 
     68 H041       14.8145    4.1592   21.3325 H         1 JB1         0.0000 
     69 H042       13.3605    3.6929   20.4916 H         1 JB1         0.0000 
     70 H03        15.0094    4.2082   18.7920 H         1 JB1         0.0000 
     71 HO02       17.0795    3.1428   18.8443 H         1 JB1         0.0000 
     72 H021       15.3605    1.9895   17.6286 H         1 JB1         0.0000 
     73 H022       13.7113    2.2254   18.1636 H         1 JB1         0.0000 
     74 H01        15.8472    0.4918   19.5214 H         1 JB1         0.0000 
     75 HO01       14.2679   -1.1427   19.0251 H         1 JB1         0.0000 
     76 H191       12.9114   -0.9410   20.3589 H         1 JB1         0.0000 
     77 H192       12.5147   -0.0160   21.9357 H         1 JB1         0.0000 
@<TRIPOS>BOND
     1    1    2 1    
     2    1   32 1    
     3    1   33 1    
     4    1   34 1    
     5    2    3 1    
     6    2   35 1    
     7    2   36 1    
     8    3    4 1    
     9    3   37 1    
    10    3   38 1    
    11    4    5 1    
    12    4   39 1    
    13    4   40 1    
    14    5    6 1    
    15    5    9 1    
    16    5   41 1    
    17    6    7 1    
    18    6   42 1    
    19    6   43 1    
    20    7    8 1    
    21    7   44 1    
    22    7   45 1    
    23    8   46 1    
    24    9   10 1    
    25    9   11 1    
    26    9   47 1    
    27   10   48 1    
    28   10   49 1    
    29   10   50 1    
    30   11   12 1    
    31   11   15 1    
    32   11   51 1    
    33   12   13 1    
    34   12   52 1    
    35   12   53 1    
    36   13   14 1    
    37   13   54 1    
    38   13   55 1    
    39   14   15 1    
    40   14   20 1    
    41   14   56 1    
    42   15   16 1    
    43   15   17 1    
    44   16   57 1    
    45   16   58 1    
    46   16   59 1    
    47   17   18 1    
    48   17   60 1    
    49   17   61 1    
    50   18   19 1    
    51   18   62 1    
    52   18   63 1    
    53   19   20 1    
    54   19   64 1    
    55   19   65 1    
    56   20   21 2    
    57   21   22 1    
    58   21   66 1    
    59   22   23 2    
    60   22   67 1    
    61   23   24 1    
    62   23   30 1    
    63   24   25 1    
    64   24   68 1    
    65   24   69 1    
    66   25   26 1    
    67   25   27 1    
    68   25   70 1    
    69   26   71 1    
    70   27   28 1    
    71   27   72 1    
    72   27   73 1    
    73   28   29 1    
    74   28   30 1    
    75   28   74 1    
    76   29   75 1    
    77   30   31 2    
    78   31   76 1    
    79   31   77 1    
@<TRIPOS>SUBSTRUCTURE
     1 JB1         1 GROUP             0 A     ****    0 ROOT    
